<routes>
    <vType id="car" length="5.0" accel="1.0" decel="5.0" sigma="0.0" maxSpeed="100.0" color="0,1,0" />
    <vType id="bicycle" length="0.5" accel="1.2" decel="3.0" sigma="0.0" maxSpeed="20.0" color="1,0,0" />
    <vType id="truck" length="7.1" accel="1.3" decel="4.0" sigma="0.0" maxSpeed="130.0" color="0,0,1" />
    <vType id="bus" length="12.0" accel="1.2" decel="4.0" sigma="0.0" maxSpeed="85.0" color="0,1,1" />


    <route id="l2t" edges="l2c c2t" />
    <route id="l2r" edges="l2c c2r" />
    <route id="l2d" edges="l2c c2d" />

    <route id="d2l" edges="d2c c2l" />
    <route id="d2t" edges="d2c c2t" />
    <route id="d2r" edges="d2c c2r" />

    <route id="r2d" edges="r2c c2d" />
    <route id="r2l" edges="r2c c2l" />
    <route id="r2t" edges="r2c c2t" />

    <route id="t2l" edges="t2c c2l" />
    <route id="t2d" edges="t2c c2d" />
    <route id="t2r" edges="t2c c2r" />

    <!-- Vehicle emerging from Left road -->
    <flow id="car_left_1" color="1,0,0" begin="0" end="7200" type="car" route="l2t" probability="0.4" />
    <flow id="car_left_2" color="1,0,0" begin="0" end="7200" type="car" route="l2r" probability="0.4" />
    <flow id="car_left_3" color="1,0,0" begin="0" end="7200" type="car" route="l2d" probability="0.4" />
    <flow id="bicycle_left_1" color="1,1,1" begin="0" end="7200" type="bicycle" route="l2t" probability="0.1" />
    <flow id="bicycle_left_2" color="1,1,1" begin="0" end="7200" type="bicycle" route="l2r" probability="0.1" />
    <flow id="bicycle_left_3" color="1,1,1" begin="0" end="7200" type="bicycle" route="l2d" probability="0.1" />
    <flow id="truck_left_1" color="0,1,0" begin="0" end="7200" type="truck" route="l2t" probability="0.3" />
    <flow id="truck_left_2" color="0,1,0" begin="0" end="7200" type="truck" route="l2r" probability="0.3" />
    <flow id="truck_left_3" color="0,1,0" begin="0" end="7200" type="truck" route="l2d" probability="0.3" />
    <flow id="bus_left_1" color="0,0,1" begin="0" end="7200" type="bus" route="l2t" probability="0.2" />
    <flow id="bus_left_2" color="0,0,1" begin="0" end="7200" type="bus" route="l2r" probability="0.2" />
    <flow id="bus_left_3" color="0,0,1" begin="0" end="7200" type="bus" route="l2d" probability="0.2" />

    <!-- Vehicle emerging from Top road -->
    <flow id="car_top_1" color="1,0,0" begin="0" end="7200" type="car" route="t2l" probability="0.4" />
    <flow id="car_top_2" color="1,0,0" begin="0" end="7200" type="car" route="t2d" probability="0.4" />
    <flow id="car_top_3" color="1,0,0" begin="0" end="7200" type="car" route="t2r" probability="0.4" />
    <flow id="bicycle_top_1" color="1,1,1" begin="0" end="7200" type="bicycle" route="t2l" probability="0.1" />
    <flow id="bicycle_top_2" color="1,1,1" begin="0" end="7200" type="bicycle" route="t2d" probability="0.1" />
    <flow id="bicycle_top_3" color="1,1,1" begin="0" end="7200" type="bicycle" route="t2r" probability="0.1" />
    <flow id="truck_top_1" color="0,1,0" begin="0" end="7200" type="truck" route="t2l" probability="0.3" />
    <flow id="truck_top_2" color="0,1,0" begin="0" end="7200" type="truck" route="t2d" probability="0.3" />
    <flow id="truck_top_3" color="0,1,0" begin="0" end="7200" type="truck" route="t2r" probability="0.3" />
    <flow id="bus_top_1" color="0,0,1" begin="0" end="7200" type="bus" route="t2l" probability="0.2" />
    <flow id="bus_top_2" color="0,0,1" begin="0" end="7200" type="bus" route="t2d" probability="0.2" />
    <flow id="bus_top_3" color="0,0,1" begin="0" end="7200" type="bus" route="t2r" probability="0.2" />

    <!-- Vehicle emerging from Right road -->
    <flow id="car_right_1" color="1,0,0" begin="0" end="7200" type="car" route="r2t" probability="0.4" />
    <flow id="car_right_2" color="1,0,0" begin="0" end="7200" type="car" route="r2l" probability="0.4" />
    <flow id="car_right_3" color="1,0,0" begin="0" end="7200" type="car" route="r2d" probability="0.4" />
    <flow id="bicycle_right_1" color="1,1,1" begin="0" end="7200" type="bicycle" route="r2t" probability="0.1" />
    <flow id="bicycle_right_2" color="1,1,1" begin="0" end="7200" type="bicycle" route="r2l" probability="0.1" />
    <flow id="bicycle_right_3" color="1,1,1" begin="0" end="7200" type="bicycle" route="r2d" probability="0.1" />
    <flow id="truck_right_1" color="0,1,0" begin="0" end="7200" type="truck" route="r2t" probability="0.3" />
    <flow id="truck_right_2" color="0,1,0" begin="0" end="7200" type="truck" route="r2l" probability="0.3" />
    <flow id="truck_right_3" color="0,1,0" begin="0" end="7200" type="truck" route="r2d" probability="0.3" />
    <flow id="bus_right_1" color="0,0,1" begin="0" end="7200" type="bus" route="r2t" probability="0.2" />
    <flow id="bus_right_2" color="0,0,1" begin="0" end="7200" type="bus" route="r2l" probability="0.2" />
    <flow id="bus_right_3" color="0,0,1" begin="0" end="7200" type="bus" route="r2d" probability="0.2" />

    <!-- Vehicle emerging from Down road -->
    <flow id="car_down_1" color="1,0,0" begin="0" end="7200" type="car" route="d2l" probability="0.4" />
    <flow id="car_down_2" color="1,0,0" begin="0" end="7200" type="car" route="d2t" probability="0.4" />
    <flow id="car_down_3" color="1,0,0" begin="0" end="7200" type="car" route="d2r" probability="0.4" />
    <flow id="bicycle_down_1" color="1,1,1" begin="0" end="7200" type="car" route="d2l" probability="0.1" />
    <flow id="bicycle_down_2" color="1,1,1" begin="0" end="7200" type="car" route="d2t" probability="0.1" />
    <flow id="bicycle_down_3" color="1,1,1" begin="0" end="7200" type="car" route="d2r" probability="0.1" />
    <flow id="truck_down_1" color="0,1,0" begin="0" end="7200" type="truck" route="d2l" probability="0.3" />
    <flow id="truck_down_2" color="0,1,0" begin="0" end="7200" type="truck" route="d2t" probability="0.3" />
    <flow id="truck_down_3" color="0,1,0" begin="0" end="7200" type="truck" route="d2r" probability="0.3" />
    <flow id="bus_down_1" color="0,0,1" begin="0" end="7200" type="bus" route="d2l" probability="0.2" />
    <flow id="bus_down_2" color="0,0,1" begin="0" end="7200" type="bus" route="d2t" probability="0.2" />
    <flow id="bus_down_3" color="0,0,1" begin="0" end="7200" type="bus" route="d2r" probability="0.2" />
</routes>