<?xml version="1.0" encoding="UTF-8"?>

<!-- generated on 2023-11-26 07:03:04 by Eclipse SUMO netconvert Version 1.19.0
<configuration xmlns:xsi="http://www.w3.org/2001/XMLSchema-instance" xsi:noNamespaceSchemaLocation="http://sumo.dlr.de/xsd/netconvertConfiguration.xsd">

    <input>
        <node-files value="intersection1.nod.xml"/>
        <edge-files value="intersection1.edg.xml"/>
    </input>

    <output>
        <output-file value="intersection1.net.xml"/>
    </output>

</configuration>
-->

<net version="1.16" junctionCornerDetail="5" limitTurnSpeed="5.50" xmlns:xsi="http://www.w3.org/2001/XMLSchema-instance" xsi:noNamespaceSchemaLocation="http://sumo.dlr.de/xsd/net_file.xsd">

    <location netOffset="100.00,100.00" convBoundary="0.00,0.00,200.00,200.00" origBoundary="-100.00,-100.00,100.00,100.00" projParameter="!"/>

    <edge id=":center_0" function="internal">
        <lane id=":center_0_0" index="0" speed="6.51" length="9.03" shape="92.00,113.60 91.65,111.15 90.60,109.40 88.85,108.35 86.40,108.00"/>
    </edge>
    <edge id=":center_1" function="internal">
        <lane id=":center_1_0" index="0" speed="13.89" length="27.20" shape="92.00,113.60 92.00,86.40"/>
        <lane id=":center_1_1" index="1" speed="13.89" length="27.20" shape="95.20,113.60 95.20,86.40"/>
        <lane id=":center_1_2" index="2" speed="13.89" length="27.20" shape="98.40,113.60 98.40,86.40"/>
    </edge>
    <edge id=":center_4" function="internal">
        <lane id=":center_4_0" index="0" speed="10.36" length="5.01" shape="98.40,113.60 99.11,108.64"/>
    </edge>
    <edge id=":center_5" function="internal">
        <lane id=":center_5_0" index="0" speed="3.65" length="1.44" shape="98.40,113.60 99.20,112.40"/>
    </edge>
    <edge id=":center_24" function="internal">
        <lane id=":center_24_0" index="0" speed="10.36" length="19.50" shape="99.11,108.64 99.35,106.95 102.20,102.20 106.95,99.35 113.60,98.40"/>
    </edge>
    <edge id=":center_25" function="internal">
        <lane id=":center_25_0" index="0" speed="3.65" length="3.23" shape="99.20,112.40 100.00,112.00 100.80,112.40 101.60,113.60"/>
    </edge>
    <edge id=":center_6" function="internal">
        <lane id=":center_6_0" index="0" speed="6.51" length="9.03" shape="113.60,108.00 111.15,108.35 109.40,109.40 108.35,111.15 108.00,113.60"/>
    </edge>
    <edge id=":center_7" function="internal">
        <lane id=":center_7_0" index="0" speed="13.89" length="27.20" shape="113.60,108.00 86.40,108.00"/>
        <lane id=":center_7_1" index="1" speed="13.89" length="27.20" shape="113.60,104.80 86.40,104.80"/>
        <lane id=":center_7_2" index="2" speed="13.89" length="27.20" shape="113.60,101.60 86.40,101.60"/>
    </edge>
    <edge id=":center_10" function="internal">
        <lane id=":center_10_0" index="0" speed="10.36" length="5.01" shape="113.60,101.60 108.64,100.89"/>
    </edge>
    <edge id=":center_11" function="internal">
        <lane id=":center_11_0" index="0" speed="3.65" length="1.44" shape="113.60,101.60 112.40,100.80"/>
    </edge>
    <edge id=":center_26" function="internal">
        <lane id=":center_26_0" index="0" speed="10.36" length="19.50" shape="108.64,100.89 106.95,100.65 102.20,97.80 99.35,93.05 98.40,86.40"/>
    </edge>
    <edge id=":center_27" function="internal">
        <lane id=":center_27_0" index="0" speed="3.65" length="3.23" shape="112.40,100.80 112.00,100.00 112.40,99.20 113.60,98.40"/>
    </edge>
    <edge id=":center_12" function="internal">
        <lane id=":center_12_0" index="0" speed="6.51" length="9.03" shape="108.00,86.40 108.35,88.85 109.40,90.60 111.15,91.65 113.60,92.00"/>
    </edge>
    <edge id=":center_13" function="internal">
        <lane id=":center_13_0" index="0" speed="13.89" length="27.20" shape="108.00,86.40 108.00,113.60"/>
        <lane id=":center_13_1" index="1" speed="13.89" length="27.20" shape="104.80,86.40 104.80,113.60"/>
        <lane id=":center_13_2" index="2" speed="13.89" length="27.20" shape="101.60,86.40 101.60,113.60"/>
    </edge>
    <edge id=":center_16" function="internal">
        <lane id=":center_16_0" index="0" speed="10.36" length="5.01" shape="101.60,86.40 100.89,91.36"/>
    </edge>
    <edge id=":center_17" function="internal">
        <lane id=":center_17_0" index="0" speed="3.65" length="1.44" shape="101.60,86.40 100.80,87.60"/>
    </edge>
    <edge id=":center_28" function="internal">
        <lane id=":center_28_0" index="0" speed="10.36" length="19.50" shape="100.89,91.36 100.65,93.05 97.80,97.80 93.05,100.65 86.40,101.60"/>
    </edge>
    <edge id=":center_29" function="internal">
        <lane id=":center_29_0" index="0" speed="3.65" length="3.23" shape="100.80,87.60 100.00,88.00 99.20,87.60 98.40,86.40"/>
    </edge>
    <edge id=":center_18" function="internal">
        <lane id=":center_18_0" index="0" speed="6.51" length="9.03" shape="86.40,92.00 88.85,91.65 90.60,90.60 91.65,88.85 92.00,86.40"/>
    </edge>
    <edge id=":center_19" function="internal">
        <lane id=":center_19_0" index="0" speed="13.89" length="27.20" shape="86.40,92.00 113.60,92.00"/>
        <lane id=":center_19_1" index="1" speed="13.89" length="27.20" shape="86.40,95.20 113.60,95.20"/>
        <lane id=":center_19_2" index="2" speed="13.89" length="27.20" shape="86.40,98.40 113.60,98.40"/>
    </edge>
    <edge id=":center_22" function="internal">
        <lane id=":center_22_0" index="0" speed="10.36" length="5.01" shape="86.40,98.40 91.36,99.11"/>
    </edge>
    <edge id=":center_23" function="internal">
        <lane id=":center_23_0" index="0" speed="3.65" length="1.44" shape="86.40,98.40 87.60,99.20"/>
    </edge>
    <edge id=":center_30" function="internal">
        <lane id=":center_30_0" index="0" speed="10.36" length="19.50" shape="91.36,99.11 93.05,99.35 97.80,102.20 100.65,106.95 101.60,113.60"/>
    </edge>
    <edge id=":center_31" function="internal">
        <lane id=":center_31_0" index="0" speed="3.65" length="3.23" shape="87.60,99.20 88.00,100.00 87.60,100.80 86.40,101.60"/>
    </edge>
    <edge id=":down_0" function="internal">
        <lane id=":down_0_0" index="0" speed="3.65" length="4.67" shape="98.40,0.00 99.20,-1.20 100.00,-1.60 100.80,-1.20 101.60,0.00"/>
    </edge>
    <edge id=":left_0" function="internal">
        <lane id=":left_0_0" index="0" speed="3.65" length="4.67" shape="0.00,101.60 -1.20,100.80 -1.60,100.00 -1.20,99.20 0.00,98.40"/>
    </edge>
    <edge id=":right_0" function="internal">
        <lane id=":right_0_0" index="0" speed="3.65" length="4.67" shape="200.00,98.40 201.20,99.20 201.60,100.00 201.20,100.80 200.00,101.60"/>
    </edge>
    <edge id=":top_0" function="internal">
        <lane id=":top_0_0" index="0" speed="3.65" length="4.67" shape="101.60,200.00 100.80,201.20 100.00,201.60 99.20,201.20 98.40,200.00"/>
    </edge>

    <edge id="c2d" from="center" to="down" priority="-1">
        <lane id="c2d_0" index="0" speed="13.89" length="86.40" shape="92.00,86.40 92.00,0.00"/>
        <lane id="c2d_1" index="1" speed="13.89" length="86.40" shape="95.20,86.40 95.20,0.00"/>
        <lane id="c2d_2" index="2" speed="13.89" length="86.40" shape="98.40,86.40 98.40,0.00"/>
    </edge>
    <edge id="c2l" from="center" to="left" priority="-1">
        <lane id="c2l_0" index="0" speed="13.89" length="86.40" shape="86.40,108.00 0.00,108.00"/>
        <lane id="c2l_1" index="1" speed="13.89" length="86.40" shape="86.40,104.80 0.00,104.80"/>
        <lane id="c2l_2" index="2" speed="13.89" length="86.40" shape="86.40,101.60 0.00,101.60"/>
    </edge>
    <edge id="c2r" from="center" to="right" priority="-1">
        <lane id="c2r_0" index="0" speed="13.89" length="86.40" shape="113.60,92.00 200.00,92.00"/>
        <lane id="c2r_1" index="1" speed="13.89" length="86.40" shape="113.60,95.20 200.00,95.20"/>
        <lane id="c2r_2" index="2" speed="13.89" length="86.40" shape="113.60,98.40 200.00,98.40"/>
    </edge>
    <edge id="c2t" from="center" to="top" priority="-1">
        <lane id="c2t_0" index="0" speed="13.89" length="86.40" shape="108.00,113.60 108.00,200.00"/>
        <lane id="c2t_1" index="1" speed="13.89" length="86.40" shape="104.80,113.60 104.80,200.00"/>
        <lane id="c2t_2" index="2" speed="13.89" length="86.40" shape="101.60,113.60 101.60,200.00"/>
    </edge>
    <edge id="d2c" from="down" to="center" priority="-1">
        <lane id="d2c_0" index="0" speed="13.89" length="86.40" shape="108.00,0.00 108.00,86.40"/>
        <lane id="d2c_1" index="1" speed="13.89" length="86.40" shape="104.80,0.00 104.80,86.40"/>
        <lane id="d2c_2" index="2" speed="13.89" length="86.40" shape="101.60,0.00 101.60,86.40"/>
    </edge>
    <edge id="l2c" from="left" to="center" priority="-1">
        <lane id="l2c_0" index="0" speed="13.89" length="86.40" shape="0.00,92.00 86.40,92.00"/>
        <lane id="l2c_1" index="1" speed="13.89" length="86.40" shape="0.00,95.20 86.40,95.20"/>
        <lane id="l2c_2" index="2" speed="13.89" length="86.40" shape="0.00,98.40 86.40,98.40"/>
    </edge>
    <edge id="r2c" from="right" to="center" priority="-1">
        <lane id="r2c_0" index="0" speed="13.89" length="86.40" shape="200.00,108.00 113.60,108.00"/>
        <lane id="r2c_1" index="1" speed="13.89" length="86.40" shape="200.00,104.80 113.60,104.80"/>
        <lane id="r2c_2" index="2" speed="13.89" length="86.40" shape="200.00,101.60 113.60,101.60"/>
    </edge>
    <edge id="t2c" from="top" to="center" priority="-1">
        <lane id="t2c_0" index="0" speed="13.89" length="86.40" shape="92.00,200.00 92.00,113.60"/>
        <lane id="t2c_1" index="1" speed="13.89" length="86.40" shape="95.20,200.00 95.20,113.60"/>
        <lane id="t2c_2" index="2" speed="13.89" length="86.40" shape="98.40,200.00 98.40,113.60"/>
    </edge>

    <tlLogic id="center" type="static" programID="0" offset="0">
        <phase duration="42" state="GGGGGGrrrrrrrrrrrrrrrrrr"/>   <!-- Phase = 0 -->
        <phase duration="42" state="rrrrrrGGGGGGrrrrrrrrrrrr"/>   <!-- Phase = 1 -->
        <phase duration="42" state="rrrrrrrrrrrrGGGGGGrrrrrr"/>   <!-- Phase = 2 -->
        <phase duration="42" state="rrrrrrrrrrrrrrrrrrGGGGGG"/>   <!-- Phase = 3 -->
    </tlLogic>

    <junction id="center" type="traffic_light" x="100.00" y="100.00" incLanes="t2c_0 t2c_1 t2c_2 r2c_0 r2c_1 r2c_2 d2c_0 d2c_1 d2c_2 l2c_0 l2c_1 l2c_2" intLanes=":center_0_0 :center_1_0 :center_1_1 :center_1_2 :center_24_0 :center_25_0 :center_6_0 :center_7_0 :center_7_1 :center_7_2 :center_26_0 :center_27_0 :center_12_0 :center_13_0 :center_13_1 :center_13_2 :center_28_0 :center_29_0 :center_18_0 :center_19_0 :center_19_1 :center_19_2 :center_30_0 :center_31_0" shape="90.40,113.60 109.60,113.60 110.04,111.38 110.60,110.60 111.38,110.04 112.38,109.71 113.60,109.60 113.60,90.40 111.38,89.96 110.60,89.40 110.04,88.62 109.71,87.62 109.60,86.40 90.40,86.40 89.96,88.62 89.40,89.40 88.62,89.96 87.62,90.29 86.40,90.40 86.40,109.60 88.62,110.04 89.40,110.60 89.96,111.38 90.29,112.38">
        <request index="0"  response="000000000000000000000000" foes="000000000000001110000000" cont="0"/>
        <request index="1"  response="010000000000010000000000" foes="011111110000011110000000" cont="0"/>
        <request index="2"  response="010000000000010000000000" foes="011111110000011110000000" cont="0"/>
        <request index="3"  response="010000000000010000000000" foes="011111110000011110000000" cont="0"/>
        <request index="4"  response="010000001110010000000000" foes="011110001110111110000000" cont="1"/>
        <request index="5"  response="010000001110000000000000" foes="010000001110000000000000" cont="1"/>
        <request index="6"  response="000000001110000000000000" foes="000000001110000000000000" cont="0"/>
        <request index="7"  response="000000011110000000011111" foes="110000011110000000011111" cont="0"/>
        <request index="8"  response="000000011110000000011111" foes="110000011110000000011111" cont="0"/>
        <request index="9"  response="000000011110000000011111" foes="110000011110000000011111" cont="0"/>
        <request index="10" response="001110011110000000011110" foes="001110111110000000011110" cont="1"/>
        <request index="11" response="001110000000000000010000" foes="001110000000000000010000" cont="1"/>
        <request index="12" response="000000000000000000000000" foes="001110000000000000000000" cont="0"/>
        <request index="13" response="010000000000010000000000" foes="011110000000011111110000" cont="0"/>
        <request index="14" response="010000000000010000000000" foes="011110000000011111110000" cont="0"/>
        <request index="15" response="010000000000010000000000" foes="011110000000011111110000" cont="0"/>
        <request index="16" response="010000000000010000001110" foes="111110000000011110001110" cont="1"/>
        <request index="17" response="000000000000010000001110" foes="000000000000010000001110" cont="1"/>
        <request index="18" response="000000000000000000001110" foes="000000000000000000001110" cont="0"/>
        <request index="19" response="000000011111000000011110" foes="000000011111110000011110" cont="0"/>
        <request index="20" response="000000011111000000011110" foes="000000011111110000011110" cont="0"/>
        <request index="21" response="000000011111000000011110" foes="000000011111110000011110" cont="0"/>
        <request index="22" response="000000011110001110011110" foes="000000011110001110111110" cont="1"/>
        <request index="23" response="000000010000001110000000" foes="000000010000001110000000" cont="1"/>
    </junction>
    <junction id="down" type="priority" x="100.00" y="0.00" incLanes="c2d_0 c2d_1 c2d_2" intLanes=":down_0_0" shape="100.00,0.00 90.40,0.00 100.00,0.00">
        <request index="0" response="0" foes="0" cont="0"/>
    </junction>
    <junction id="left" type="priority" x="0.00" y="100.00" incLanes="c2l_0 c2l_1 c2l_2" intLanes=":left_0_0" shape="0.00,100.00 0.00,109.60 0.00,100.00">
        <request index="0" response="0" foes="0" cont="0"/>
    </junction>
    <junction id="right" type="priority" x="200.00" y="100.00" incLanes="c2r_0 c2r_1 c2r_2" intLanes=":right_0_0" shape="200.00,100.00 200.00,90.40 200.00,100.00">
        <request index="0" response="0" foes="0" cont="0"/>
    </junction>
    <junction id="top" type="priority" x="100.00" y="200.00" incLanes="c2t_0 c2t_1 c2t_2" intLanes=":top_0_0" shape="100.00,200.00 109.60,200.00 100.00,200.00">
        <request index="0" response="0" foes="0" cont="0"/>
    </junction>

    <junction id=":center_24_0" type="internal" x="99.11" y="108.64" incLanes=":center_4_0 d2c_0 d2c_1 d2c_2" intLanes=":center_7_0 :center_7_1 :center_7_2 :center_10_0 :center_11_0 :center_12_0 :center_13_0 :center_13_1 :center_13_2 :center_19_0 :center_19_1 :center_19_2 :center_22_0"/>
    <junction id=":center_25_0" type="internal" x="99.20" y="112.40" incLanes=":center_5_0 d2c_0 d2c_1 d2c_2 l2c_2 r2c_0" intLanes=":center_6_0 :center_13_0 :center_13_1 :center_13_2 :center_22_0"/>
    <junction id=":center_26_0" type="internal" x="108.64" y="100.89" incLanes=":center_10_0 l2c_0 l2c_1 l2c_2" intLanes=":center_1_0 :center_1_1 :center_1_2 :center_4_0 :center_13_0 :center_13_1 :center_13_2 :center_16_0 :center_17_0 :center_18_0 :center_19_0 :center_19_1 :center_19_2"/>
    <junction id=":center_27_0" type="internal" x="112.40" y="100.80" incLanes=":center_11_0 d2c_0 l2c_0 l2c_1 l2c_2 t2c_2" intLanes=":center_4_0 :center_12_0 :center_19_0 :center_19_1 :center_19_2"/>
    <junction id=":center_28_0" type="internal" x="100.89" y="91.36" incLanes=":center_16_0 t2c_0 t2c_1 t2c_2" intLanes=":center_0_0 :center_1_0 :center_1_1 :center_1_2 :center_7_0 :center_7_1 :center_7_2 :center_10_0 :center_19_0 :center_19_1 :center_19_2 :center_22_0 :center_23_0"/>
    <junction id=":center_29_0" type="internal" x="100.80" y="87.60" incLanes=":center_17_0 l2c_0 r2c_2 t2c_0 t2c_1 t2c_2" intLanes=":center_1_0 :center_1_1 :center_1_2 :center_10_0 :center_18_0"/>
    <junction id=":center_30_0" type="internal" x="91.36" y="99.11" incLanes=":center_22_0 r2c_0 r2c_1 r2c_2" intLanes=":center_1_0 :center_1_1 :center_1_2 :center_4_0 :center_5_0 :center_6_0 :center_7_0 :center_7_1 :center_7_2 :center_13_0 :center_13_1 :center_13_2 :center_16_0"/>
    <junction id=":center_31_0" type="internal" x="87.60" y="99.20" incLanes=":center_23_0 d2c_2 r2c_0 r2c_1 r2c_2 t2c_0" intLanes=":center_0_0 :center_7_0 :center_7_1 :center_7_2 :center_16_0"/>

    <connection from="c2d" to="d2c" fromLane="2" toLane="2" via=":down_0_0" dir="t" state="M"/>
    <connection from="c2l" to="l2c" fromLane="2" toLane="2" via=":left_0_0" dir="t" state="M"/>
    <connection from="c2r" to="r2c" fromLane="2" toLane="2" via=":right_0_0" dir="t" state="M"/>
    <connection from="c2t" to="t2c" fromLane="2" toLane="2" via=":top_0_0" dir="t" state="M"/>
    <connection from="d2c" to="c2r" fromLane="0" toLane="0" via=":center_12_0" tl="center" linkIndex="12" dir="r" state="O"/>
    <connection from="d2c" to="c2t" fromLane="0" toLane="0" via=":center_13_0" tl="center" linkIndex="13" dir="s" state="O"/>
    <connection from="d2c" to="c2t" fromLane="1" toLane="1" via=":center_13_1" tl="center" linkIndex="14" dir="s" state="O"/>
    <connection from="d2c" to="c2t" fromLane="2" toLane="2" via=":center_13_2" tl="center" linkIndex="15" dir="s" state="O"/>
    <connection from="d2c" to="c2l" fromLane="2" toLane="2" via=":center_16_0" tl="center" linkIndex="16" dir="l" state="o"/>
    <connection from="d2c" to="c2d" fromLane="2" toLane="2" via=":center_17_0" tl="center" linkIndex="17" dir="t" state="o"/>
    <connection from="l2c" to="c2d" fromLane="0" toLane="0" via=":center_18_0" tl="center" linkIndex="18" dir="r" state="o"/>
    <connection from="l2c" to="c2r" fromLane="0" toLane="0" via=":center_19_0" tl="center" linkIndex="19" dir="s" state="o"/>
    <connection from="l2c" to="c2r" fromLane="1" toLane="1" via=":center_19_1" tl="center" linkIndex="20" dir="s" state="o"/>
    <connection from="l2c" to="c2r" fromLane="2" toLane="2" via=":center_19_2" tl="center" linkIndex="21" dir="s" state="o"/>
    <connection from="l2c" to="c2t" fromLane="2" toLane="2" via=":center_22_0" tl="center" linkIndex="22" dir="l" state="o"/>
    <connection from="l2c" to="c2l" fromLane="2" toLane="2" via=":center_23_0" tl="center" linkIndex="23" dir="t" state="o"/>
    <connection from="r2c" to="c2t" fromLane="0" toLane="0" via=":center_6_0" tl="center" linkIndex="6" dir="r" state="o"/>
    <connection from="r2c" to="c2l" fromLane="0" toLane="0" via=":center_7_0" tl="center" linkIndex="7" dir="s" state="o"/>
    <connection from="r2c" to="c2l" fromLane="1" toLane="1" via=":center_7_1" tl="center" linkIndex="8" dir="s" state="o"/>
    <connection from="r2c" to="c2l" fromLane="2" toLane="2" via=":center_7_2" tl="center" linkIndex="9" dir="s" state="o"/>
    <connection from="r2c" to="c2d" fromLane="2" toLane="2" via=":center_10_0" tl="center" linkIndex="10" dir="l" state="o"/>
    <connection from="r2c" to="c2r" fromLane="2" toLane="2" via=":center_11_0" tl="center" linkIndex="11" dir="t" state="o"/>
    <connection from="t2c" to="c2l" fromLane="0" toLane="0" via=":center_0_0" tl="center" linkIndex="0" dir="r" state="O"/>
    <connection from="t2c" to="c2d" fromLane="0" toLane="0" via=":center_1_0" tl="center" linkIndex="1" dir="s" state="O"/>
    <connection from="t2c" to="c2d" fromLane="1" toLane="1" via=":center_1_1" tl="center" linkIndex="2" dir="s" state="O"/>
    <connection from="t2c" to="c2d" fromLane="2" toLane="2" via=":center_1_2" tl="center" linkIndex="3" dir="s" state="O"/>
    <connection from="t2c" to="c2r" fromLane="2" toLane="2" via=":center_4_0" tl="center" linkIndex="4" dir="l" state="o"/>
    <connection from="t2c" to="c2t" fromLane="2" toLane="2" via=":center_5_0" tl="center" linkIndex="5" dir="t" state="o"/>

    <connection from=":center_0" to="c2l" fromLane="0" toLane="0" dir="r" state="M"/>
    <connection from=":center_1" to="c2d" fromLane="0" toLane="0" dir="s" state="M"/>
    <connection from=":center_1" to="c2d" fromLane="1" toLane="1" dir="s" state="M"/>
    <connection from=":center_1" to="c2d" fromLane="2" toLane="2" dir="s" state="M"/>
    <connection from=":center_4" to="c2r" fromLane="0" toLane="2" via=":center_24_0" dir="l" state="m"/>
    <connection from=":center_24" to="c2r" fromLane="0" toLane="2" dir="l" state="M"/>
    <connection from=":center_5" to="c2t" fromLane="0" toLane="2" via=":center_25_0" dir="t" state="m"/>
    <connection from=":center_25" to="c2t" fromLane="0" toLane="2" dir="t" state="M"/>
    <connection from=":center_6" to="c2t" fromLane="0" toLane="0" dir="r" state="M"/>
    <connection from=":center_7" to="c2l" fromLane="0" toLane="0" dir="s" state="M"/>
    <connection from=":center_7" to="c2l" fromLane="1" toLane="1" dir="s" state="M"/>
    <connection from=":center_7" to="c2l" fromLane="2" toLane="2" dir="s" state="M"/>
    <connection from=":center_10" to="c2d" fromLane="0" toLane="2" via=":center_26_0" dir="l" state="m"/>
    <connection from=":center_26" to="c2d" fromLane="0" toLane="2" dir="l" state="M"/>
    <connection from=":center_11" to="c2r" fromLane="0" toLane="2" via=":center_27_0" dir="t" state="m"/>
    <connection from=":center_27" to="c2r" fromLane="0" toLane="2" dir="t" state="M"/>
    <connection from=":center_12" to="c2r" fromLane="0" toLane="0" dir="r" state="M"/>
    <connection from=":center_13" to="c2t" fromLane="0" toLane="0" dir="s" state="M"/>
    <connection from=":center_13" to="c2t" fromLane="1" toLane="1" dir="s" state="M"/>
    <connection from=":center_13" to="c2t" fromLane="2" toLane="2" dir="s" state="M"/>
    <connection from=":center_16" to="c2l" fromLane="0" toLane="2" via=":center_28_0" dir="l" state="m"/>
    <connection from=":center_28" to="c2l" fromLane="0" toLane="2" dir="l" state="M"/>
    <connection from=":center_17" to="c2d" fromLane="0" toLane="2" via=":center_29_0" dir="t" state="m"/>
    <connection from=":center_29" to="c2d" fromLane="0" toLane="2" dir="t" state="M"/>
    <connection from=":center_18" to="c2d" fromLane="0" toLane="0" dir="r" state="M"/>
    <connection from=":center_19" to="c2r" fromLane="0" toLane="0" dir="s" state="M"/>
    <connection from=":center_19" to="c2r" fromLane="1" toLane="1" dir="s" state="M"/>
    <connection from=":center_19" to="c2r" fromLane="2" toLane="2" dir="s" state="M"/>
    <connection from=":center_22" to="c2t" fromLane="0" toLane="2" via=":center_30_0" dir="l" state="m"/>
    <connection from=":center_30" to="c2t" fromLane="0" toLane="2" dir="l" state="M"/>
    <connection from=":center_23" to="c2l" fromLane="0" toLane="2" via=":center_31_0" dir="t" state="m"/>
    <connection from=":center_31" to="c2l" fromLane="0" toLane="2" dir="t" state="M"/>
    <connection from=":down_0" to="d2c" fromLane="0" toLane="2" dir="t" state="M"/>
    <connection from=":left_0" to="l2c" fromLane="0" toLane="2" dir="t" state="M"/>
    <connection from=":right_0" to="r2c" fromLane="0" toLane="2" dir="t" state="M"/>
    <connection from=":top_0" to="t2c" fromLane="0" toLane="2" dir="t" state="M"/>

</net>
