<edges>
    <edge from="top" to="center" id="t2c" numLanes="3" />
    <edge from="center" to="top" id="c2t" numLanes="3" />

    <edge from="left" to="center" id="l2c" numLanes="3" />
    <edge from="center" to="left" id="c2l" numLanes="3" />

    <edge from="down" to="center" id="d2c" numLanes="3" />
    <edge from="center" to="down" id="c2d" numLanes="3" />

    <edge from="right" to="center" id="r2c" numLanes="3" />
    <edge from="center" to="right" id="c2r" numLanes="3" />
</edges>